* NGSPICE file created from top.ext - technology: sky130A

* Black-box entry subcircuit for sky130_fd_sc_hd__or3_1 abstract view
.subckt sky130_fd_sc_hd__or3_1 A B C VGND VNB VPB VPWR X
.ends

* Black-box entry subcircuit for sky130_fd_sc_hd__nand2_1 abstract view
.subckt sky130_fd_sc_hd__nand2_1 A B VGND VNB VPB VPWR Y
.ends

* Black-box entry subcircuit for sky130_fd_sc_hd__tapvpwrvgnd_1 abstract view
.subckt sky130_fd_sc_hd__tapvpwrvgnd_1 VGND VPWR
.ends

* Black-box entry subcircuit for sky130_fd_sc_hd__decap_6 abstract view
.subckt sky130_fd_sc_hd__decap_6 VGND VNB VPB VPWR
.ends

* Black-box entry subcircuit for sky130_fd_sc_hd__o21a_1 abstract view
.subckt sky130_fd_sc_hd__o21a_1 A1 A2 B1 VGND VNB VPB VPWR X
.ends

* Black-box entry subcircuit for sky130_fd_sc_hd__fill_1 abstract view
.subckt sky130_fd_sc_hd__fill_1 VGND VNB VPB VPWR
.ends

* Black-box entry subcircuit for sky130_fd_sc_hd__and2_1 abstract view
.subckt sky130_fd_sc_hd__and2_1 A B VGND VNB VPB VPWR X
.ends

* Black-box entry subcircuit for sky130_ef_sc_hd__decap_12 abstract view
.subckt sky130_ef_sc_hd__decap_12 VPWR VGND VPB VNB
.ends

* Black-box entry subcircuit for sky130_fd_sc_hd__fill_2 abstract view
.subckt sky130_fd_sc_hd__fill_2 VGND VNB VPB VPWR
.ends

* Black-box entry subcircuit for sky130_fd_sc_hd__dlygate4sd1_1 abstract view
.subckt sky130_fd_sc_hd__dlygate4sd1_1 A VGND VNB VPB VPWR X
.ends

* Black-box entry subcircuit for sky130_fd_sc_hd__decap_4 abstract view
.subckt sky130_fd_sc_hd__decap_4 VGND VNB VPB VPWR
.ends

* Black-box entry subcircuit for sky130_fd_sc_hd__decap_3 abstract view
.subckt sky130_fd_sc_hd__decap_3 VGND VNB VPB VPWR
.ends

* Black-box entry subcircuit for sky130_fd_sc_hd__and3_1 abstract view
.subckt sky130_fd_sc_hd__and3_1 A B C VGND VNB VPB VPWR X
.ends

* Black-box entry subcircuit for sky130_fd_sc_hd__a21oi_1 abstract view
.subckt sky130_fd_sc_hd__a21oi_1 A1 A2 B1 VGND VNB VPB VPWR Y
.ends

* Black-box entry subcircuit for sky130_fd_sc_hd__decap_8 abstract view
.subckt sky130_fd_sc_hd__decap_8 VGND VNB VPB VPWR
.ends

* Black-box entry subcircuit for sky130_fd_sc_hd__or2_1 abstract view
.subckt sky130_fd_sc_hd__or2_1 A B VGND VNB VPB VPWR X
.ends

* Black-box entry subcircuit for sky130_fd_sc_hd__a2bb2o_1 abstract view
.subckt sky130_fd_sc_hd__a2bb2o_1 A1_N A2_N B1 B2 VGND VNB VPB VPWR X
.ends

* Black-box entry subcircuit for sky130_fd_sc_hd__clkbuf_2 abstract view
.subckt sky130_fd_sc_hd__clkbuf_2 A VGND VNB VPB VPWR X
.ends

* Black-box entry subcircuit for sky130_fd_sc_hd__buf_2 abstract view
.subckt sky130_fd_sc_hd__buf_2 A VGND VNB VPB VPWR X
.ends

* Black-box entry subcircuit for sky130_fd_sc_hd__nor2b_1 abstract view
.subckt sky130_fd_sc_hd__nor2b_1 A B_N VGND VNB VPB VPWR Y
.ends

* Black-box entry subcircuit for sky130_fd_sc_hd__xnor2_1 abstract view
.subckt sky130_fd_sc_hd__xnor2_1 A B VGND VNB VPB VPWR Y
.ends

* Black-box entry subcircuit for sky130_fd_sc_hd__a31o_1 abstract view
.subckt sky130_fd_sc_hd__a31o_1 A1 A2 A3 B1 VGND VNB VPB VPWR X
.ends

* Black-box entry subcircuit for sky130_fd_sc_hd__o211a_1 abstract view
.subckt sky130_fd_sc_hd__o211a_1 A1 A2 B1 C1 VGND VNB VPB VPWR X
.ends

* Black-box entry subcircuit for sky130_fd_sc_hd__clkbuf_8 abstract view
.subckt sky130_fd_sc_hd__clkbuf_8 A VGND VNB VPB VPWR X
.ends

* Black-box entry subcircuit for sky130_fd_sc_hd__a32o_1 abstract view
.subckt sky130_fd_sc_hd__a32o_1 A1 A2 A3 B1 B2 VGND VNB VPB VPWR X
.ends

* Black-box entry subcircuit for sky130_fd_sc_hd__nor3b_1 abstract view
.subckt sky130_fd_sc_hd__nor3b_1 A B C_N VGND VNB VPB VPWR Y
.ends

* Black-box entry subcircuit for sky130_fd_sc_hd__xor2_1 abstract view
.subckt sky130_fd_sc_hd__xor2_1 A B VGND VNB VPB VPWR X
.ends

* Black-box entry subcircuit for sky130_fd_sc_hd__xnor2_2 abstract view
.subckt sky130_fd_sc_hd__xnor2_2 A B VGND VNB VPB VPWR Y
.ends

* Black-box entry subcircuit for sky130_fd_sc_hd__o2bb2a_1 abstract view
.subckt sky130_fd_sc_hd__o2bb2a_1 A1_N A2_N B1 B2 VGND VNB VPB VPWR X
.ends

* Black-box entry subcircuit for sky130_fd_sc_hd__a22o_1 abstract view
.subckt sky130_fd_sc_hd__a22o_1 A1 A2 B1 B2 VGND VNB VPB VPWR X
.ends

* Black-box entry subcircuit for sky130_fd_sc_hd__dfxtp_1 abstract view
.subckt sky130_fd_sc_hd__dfxtp_1 CLK D VGND VNB VPB VPWR Q
.ends

* Black-box entry subcircuit for sky130_fd_sc_hd__nor2_1 abstract view
.subckt sky130_fd_sc_hd__nor2_1 A B VGND VNB VPB VPWR Y
.ends

* Black-box entry subcircuit for sky130_fd_sc_hd__dfxtp_2 abstract view
.subckt sky130_fd_sc_hd__dfxtp_2 CLK D VGND VNB VPB VPWR Q
.ends

* Black-box entry subcircuit for sky130_fd_sc_hd__mux2_1 abstract view
.subckt sky130_fd_sc_hd__mux2_1 A0 A1 S VGND VNB VPB VPWR X
.ends

* Black-box entry subcircuit for sky130_fd_sc_hd__buf_4 abstract view
.subckt sky130_fd_sc_hd__buf_4 A VGND VNB VPB VPWR X
.ends

* Black-box entry subcircuit for sky130_fd_sc_hd__and2b_1 abstract view
.subckt sky130_fd_sc_hd__and2b_1 A_N B VGND VNB VPB VPWR X
.ends

* Black-box entry subcircuit for sky130_fd_sc_hd__inv_2 abstract view
.subckt sky130_fd_sc_hd__inv_2 A VGND VNB VPB VPWR Y
.ends

* Black-box entry subcircuit for sky130_fd_sc_hd__dlygate4sd3_1 abstract view
.subckt sky130_fd_sc_hd__dlygate4sd3_1 A VGND VNB VPB VPWR X
.ends

* Black-box entry subcircuit for sky130_fd_sc_hd__clkbuf_4 abstract view
.subckt sky130_fd_sc_hd__clkbuf_4 A VGND VNB VPB VPWR X
.ends

* Black-box entry subcircuit for sky130_fd_sc_hd__a21o_1 abstract view
.subckt sky130_fd_sc_hd__a21o_1 A1 A2 B1 VGND VNB VPB VPWR X
.ends

* Black-box entry subcircuit for sky130_fd_sc_hd__clkbuf_1 abstract view
.subckt sky130_fd_sc_hd__clkbuf_1 A VGND VNB VPB VPWR X
.ends

* Black-box entry subcircuit for sky130_fd_sc_hd__o221a_4 abstract view
.subckt sky130_fd_sc_hd__o221a_4 A1 A2 B1 B2 C1 VGND VNB VPB VPWR X
.ends

* Black-box entry subcircuit for sky130_fd_sc_hd__or2b_1 abstract view
.subckt sky130_fd_sc_hd__or2b_1 A B_N VGND VNB VPB VPWR X
.ends

* Black-box entry subcircuit for sky130_fd_sc_hd__and4bb_1 abstract view
.subckt sky130_fd_sc_hd__and4bb_1 A_N B_N C D VGND VNB VPB VPWR X
.ends

* Black-box entry subcircuit for sky130_fd_sc_hd__o31ai_1 abstract view
.subckt sky130_fd_sc_hd__o31ai_1 A1 A2 A3 B1 VGND VNB VPB VPWR Y
.ends

* Black-box entry subcircuit for sky130_fd_sc_hd__nor2_4 abstract view
.subckt sky130_fd_sc_hd__nor2_4 A B VGND VNB VPB VPWR Y
.ends

* Black-box entry subcircuit for sky130_fd_sc_hd__and4_1 abstract view
.subckt sky130_fd_sc_hd__and4_1 A B C D VGND VNB VPB VPWR X
.ends

* Black-box entry subcircuit for sky130_fd_sc_hd__nor3_1 abstract view
.subckt sky130_fd_sc_hd__nor3_1 A B C VGND VNB VPB VPWR Y
.ends

* Black-box entry subcircuit for sky130_fd_sc_hd__xor2_2 abstract view
.subckt sky130_fd_sc_hd__xor2_2 A B VGND VNB VPB VPWR X
.ends

* Black-box entry subcircuit for sky130_fd_sc_hd__o21ai_1 abstract view
.subckt sky130_fd_sc_hd__o21ai_1 A1 A2 B1 VGND VNB VPB VPWR Y
.ends

* Black-box entry subcircuit for sky130_fd_sc_hd__nand3_1 abstract view
.subckt sky130_fd_sc_hd__nand3_1 A B C VGND VNB VPB VPWR Y
.ends

* Black-box entry subcircuit for sky130_fd_sc_hd__o311a_1 abstract view
.subckt sky130_fd_sc_hd__o311a_1 A1 A2 A3 B1 C1 VGND VNB VPB VPWR X
.ends

* Black-box entry subcircuit for sky130_fd_sc_hd__a22oi_1 abstract view
.subckt sky130_fd_sc_hd__a22oi_1 A1 A2 B1 B2 VGND VNB VPB VPWR Y
.ends

* Black-box entry subcircuit for sky130_fd_sc_hd__o21bai_1 abstract view
.subckt sky130_fd_sc_hd__o21bai_1 A1 A2 B1_N VGND VNB VPB VPWR Y
.ends

* Black-box entry subcircuit for sky130_fd_sc_hd__nor2b_2 abstract view
.subckt sky130_fd_sc_hd__nor2b_2 A B_N VGND VNB VPB VPWR Y
.ends

* Black-box entry subcircuit for sky130_fd_sc_hd__a21bo_1 abstract view
.subckt sky130_fd_sc_hd__a21bo_1 A1 A2 B1_N VGND VNB VPB VPWR X
.ends

* Black-box entry subcircuit for sky130_fd_sc_hd__o21ba_1 abstract view
.subckt sky130_fd_sc_hd__o21ba_1 A1 A2 B1_N VGND VNB VPB VPWR X
.ends

* Black-box entry subcircuit for sky130_fd_sc_hd__xnor2_4 abstract view
.subckt sky130_fd_sc_hd__xnor2_4 A B VGND VNB VPB VPWR Y
.ends

* Black-box entry subcircuit for sky130_fd_sc_hd__a211o_1 abstract view
.subckt sky130_fd_sc_hd__a211o_1 A1 A2 B1 C1 VGND VNB VPB VPWR X
.ends

* Black-box entry subcircuit for sky130_fd_sc_hd__or3_4 abstract view
.subckt sky130_fd_sc_hd__or3_4 A B C VGND VNB VPB VPWR X
.ends

* Black-box entry subcircuit for sky130_fd_sc_hd__a21oi_2 abstract view
.subckt sky130_fd_sc_hd__a21oi_2 A1 A2 B1 VGND VNB VPB VPWR Y
.ends

* Black-box entry subcircuit for sky130_fd_sc_hd__a21oi_4 abstract view
.subckt sky130_fd_sc_hd__a21oi_4 A1 A2 B1 VGND VNB VPB VPWR Y
.ends

* Black-box entry subcircuit for sky130_fd_sc_hd__a21boi_1 abstract view
.subckt sky130_fd_sc_hd__a21boi_1 A1 A2 B1_N VGND VNB VPB VPWR Y
.ends

* Black-box entry subcircuit for sky130_fd_sc_hd__a21boi_2 abstract view
.subckt sky130_fd_sc_hd__a21boi_2 A1 A2 B1_N VGND VNB VPB VPWR Y
.ends

* Black-box entry subcircuit for sky130_fd_sc_hd__clkinv_4 abstract view
.subckt sky130_fd_sc_hd__clkinv_4 A VGND VNB VPB VPWR Y
.ends

* Black-box entry subcircuit for sky130_fd_sc_hd__a311o_1 abstract view
.subckt sky130_fd_sc_hd__a311o_1 A1 A2 A3 B1 C1 VGND VNB VPB VPWR X
.ends

* Black-box entry subcircuit for sky130_fd_sc_hd__and4b_1 abstract view
.subckt sky130_fd_sc_hd__and4b_1 A_N B C D VGND VNB VPB VPWR X
.ends

* Black-box entry subcircuit for sky130_fd_sc_hd__a31oi_1 abstract view
.subckt sky130_fd_sc_hd__a31oi_1 A1 A2 A3 B1 VGND VNB VPB VPWR Y
.ends

* Black-box entry subcircuit for sky130_fd_sc_hd__nor4_1 abstract view
.subckt sky130_fd_sc_hd__nor4_1 A B C D VGND VNB VPB VPWR Y
.ends

* Black-box entry subcircuit for sky130_fd_sc_hd__nand2b_1 abstract view
.subckt sky130_fd_sc_hd__nand2b_1 A_N B VGND VNB VPB VPWR Y
.ends

* Black-box entry subcircuit for sky130_fd_sc_hd__clkinvlp_2 abstract view
.subckt sky130_fd_sc_hd__clkinvlp_2 A VGND VNB VPB VPWR Y
.ends

* Black-box entry subcircuit for sky130_fd_sc_hd__or2_4 abstract view
.subckt sky130_fd_sc_hd__or2_4 A B VGND VNB VPB VPWR X
.ends

* Black-box entry subcircuit for sky130_fd_sc_hd__nand3b_1 abstract view
.subckt sky130_fd_sc_hd__nand3b_1 A_N B C VGND VNB VPB VPWR Y
.ends

* Black-box entry subcircuit for sky130_fd_sc_hd__a221o_1 abstract view
.subckt sky130_fd_sc_hd__a221o_1 A1 A2 B1 B2 C1 VGND VNB VPB VPWR X
.ends

* Black-box entry subcircuit for sky130_fd_sc_hd__bufinv_16 abstract view
.subckt sky130_fd_sc_hd__bufinv_16 A VGND VNB VPB VPWR Y
.ends

* Black-box entry subcircuit for sky130_fd_sc_hd__a211oi_1 abstract view
.subckt sky130_fd_sc_hd__a211oi_1 A1 A2 B1 C1 VGND VNB VPB VPWR Y
.ends

* Black-box entry subcircuit for sky130_fd_sc_hd__nand4_2 abstract view
.subckt sky130_fd_sc_hd__nand4_2 A B C D VGND VNB VPB VPWR Y
.ends

* Black-box entry subcircuit for sky130_fd_sc_hd__clkbuf_16 abstract view
.subckt sky130_fd_sc_hd__clkbuf_16 A VGND VNB VPB VPWR X
.ends

* Black-box entry subcircuit for sky130_fd_sc_hd__or3b_1 abstract view
.subckt sky130_fd_sc_hd__or3b_1 A B C_N VGND VNB VPB VPWR X
.ends

* Black-box entry subcircuit for sky130_fd_sc_hd__nand3_2 abstract view
.subckt sky130_fd_sc_hd__nand3_2 A B C VGND VNB VPB VPWR Y
.ends

* Black-box entry subcircuit for sky130_fd_sc_hd__inv_8 abstract view
.subckt sky130_fd_sc_hd__inv_8 A VGND VNB VPB VPWR Y
.ends

* Black-box entry subcircuit for sky130_fd_sc_hd__o21ai_2 abstract view
.subckt sky130_fd_sc_hd__o21ai_2 A1 A2 B1 VGND VNB VPB VPWR Y
.ends

* Black-box entry subcircuit for sky130_fd_sc_hd__inv_6 abstract view
.subckt sky130_fd_sc_hd__inv_6 A VGND VNB VPB VPWR Y
.ends

* Black-box entry subcircuit for sky130_fd_sc_hd__and3b_1 abstract view
.subckt sky130_fd_sc_hd__and3b_1 A_N B C VGND VNB VPB VPWR X
.ends

* Black-box entry subcircuit for sky130_fd_sc_hd__o22a_1 abstract view
.subckt sky130_fd_sc_hd__o22a_1 A1 A2 B1 B2 VGND VNB VPB VPWR X
.ends

* Black-box entry subcircuit for sky130_fd_sc_hd__o211ai_2 abstract view
.subckt sky130_fd_sc_hd__o211ai_2 A1 A2 B1 C1 VGND VNB VPB VPWR Y
.ends

* Black-box entry subcircuit for sky130_fd_sc_hd__a22oi_4 abstract view
.subckt sky130_fd_sc_hd__a22oi_4 A1 A2 B1 B2 VGND VNB VPB VPWR Y
.ends

* Black-box entry subcircuit for sky130_fd_sc_hd__dfxtp_4 abstract view
.subckt sky130_fd_sc_hd__dfxtp_4 CLK D VGND VNB VPB VPWR Q
.ends

* Black-box entry subcircuit for sky130_fd_sc_hd__a311o_4 abstract view
.subckt sky130_fd_sc_hd__a311o_4 A1 A2 A3 B1 C1 VGND VNB VPB VPWR X
.ends

* Black-box entry subcircuit for sky130_fd_sc_hd__a21o_2 abstract view
.subckt sky130_fd_sc_hd__a21o_2 A1 A2 B1 VGND VNB VPB VPWR X
.ends

* Black-box entry subcircuit for sky130_fd_sc_hd__buf_1 abstract view
.subckt sky130_fd_sc_hd__buf_1 A VGND VNB VPB VPWR X
.ends

* Black-box entry subcircuit for sky130_fd_sc_hd__o41a_1 abstract view
.subckt sky130_fd_sc_hd__o41a_1 A1 A2 A3 A4 B1 VGND VNB VPB VPWR X
.ends

* Black-box entry subcircuit for sky130_fd_sc_hd__buf_6 abstract view
.subckt sky130_fd_sc_hd__buf_6 A VGND VNB VPB VPWR X
.ends

* Black-box entry subcircuit for sky130_fd_sc_hd__dlymetal6s2s_1 abstract view
.subckt sky130_fd_sc_hd__dlymetal6s2s_1 A VGND VNB VPB VPWR X
.ends

* Black-box entry subcircuit for sky130_fd_sc_hd__nand4_4 abstract view
.subckt sky130_fd_sc_hd__nand4_4 A B C D VGND VNB VPB VPWR Y
.ends

* Black-box entry subcircuit for sky130_fd_sc_hd__nor4b_1 abstract view
.subckt sky130_fd_sc_hd__nor4b_1 A B C D_N VGND VNB VPB VPWR Y
.ends

* Black-box entry subcircuit for sky130_fd_sc_hd__o221a_1 abstract view
.subckt sky130_fd_sc_hd__o221a_1 A1 A2 B1 B2 C1 VGND VNB VPB VPWR X
.ends

* Black-box entry subcircuit for sky130_fd_sc_hd__and2_4 abstract view
.subckt sky130_fd_sc_hd__and2_4 A B VGND VNB VPB VPWR X
.ends

* Black-box entry subcircuit for sky130_fd_sc_hd__nand2_2 abstract view
.subckt sky130_fd_sc_hd__nand2_2 A B VGND VNB VPB VPWR Y
.ends

* Black-box entry subcircuit for sky130_fd_sc_hd__xor2_4 abstract view
.subckt sky130_fd_sc_hd__xor2_4 A B VGND VNB VPB VPWR X
.ends

* Black-box entry subcircuit for sky130_fd_sc_hd__nand4_1 abstract view
.subckt sky130_fd_sc_hd__nand4_1 A B C D VGND VNB VPB VPWR Y
.ends

* Black-box entry subcircuit for sky130_fd_sc_hd__a2111o_1 abstract view
.subckt sky130_fd_sc_hd__a2111o_1 A1 A2 B1 C1 D1 VGND VNB VPB VPWR X
.ends

* Black-box entry subcircuit for sky130_fd_sc_hd__a211o_4 abstract view
.subckt sky130_fd_sc_hd__a211o_4 A1 A2 B1 C1 VGND VNB VPB VPWR X
.ends

* Black-box entry subcircuit for sky130_fd_sc_hd__nor2_2 abstract view
.subckt sky130_fd_sc_hd__nor2_2 A B VGND VNB VPB VPWR Y
.ends

* Black-box entry subcircuit for sky130_fd_sc_hd__a221oi_1 abstract view
.subckt sky130_fd_sc_hd__a221oi_1 A1 A2 B1 B2 C1 VGND VNB VPB VPWR Y
.ends

* Black-box entry subcircuit for sky130_fd_sc_hd__o2111ai_1 abstract view
.subckt sky130_fd_sc_hd__o2111ai_1 A1 A2 B1 C1 D1 VGND VNB VPB VPWR Y
.ends

* Black-box entry subcircuit for sky130_fd_sc_hd__or4_1 abstract view
.subckt sky130_fd_sc_hd__or4_1 A B C D VGND VNB VPB VPWR X
.ends

* Black-box entry subcircuit for sky130_fd_sc_hd__or3b_4 abstract view
.subckt sky130_fd_sc_hd__or3b_4 A B C_N VGND VNB VPB VPWR X
.ends

* Black-box entry subcircuit for sky130_fd_sc_hd__o31ai_2 abstract view
.subckt sky130_fd_sc_hd__o31ai_2 A1 A2 A3 B1 VGND VNB VPB VPWR Y
.ends

* Black-box entry subcircuit for sky130_fd_sc_hd__o31a_1 abstract view
.subckt sky130_fd_sc_hd__o31a_1 A1 A2 A3 B1 VGND VNB VPB VPWR X
.ends

* Black-box entry subcircuit for sky130_fd_sc_hd__and3b_2 abstract view
.subckt sky130_fd_sc_hd__and3b_2 A_N B C VGND VNB VPB VPWR X
.ends

* Black-box entry subcircuit for sky130_fd_sc_hd__a31oi_2 abstract view
.subckt sky130_fd_sc_hd__a31oi_2 A1 A2 A3 B1 VGND VNB VPB VPWR Y
.ends

* Black-box entry subcircuit for sky130_fd_sc_hd__nand2_4 abstract view
.subckt sky130_fd_sc_hd__nand2_4 A B VGND VNB VPB VPWR Y
.ends

* Black-box entry subcircuit for sky130_fd_sc_hd__or4b_4 abstract view
.subckt sky130_fd_sc_hd__or4b_4 A B C D_N VGND VNB VPB VPWR X
.ends

* Black-box entry subcircuit for sky130_fd_sc_hd__nor4bb_2 abstract view
.subckt sky130_fd_sc_hd__nor4bb_2 A B C_N D_N VGND VNB VPB VPWR Y
.ends

* Black-box entry subcircuit for sky130_fd_sc_hd__a41o_1 abstract view
.subckt sky130_fd_sc_hd__a41o_1 A1 A2 A3 A4 B1 VGND VNB VPB VPWR X
.ends

* Black-box entry subcircuit for sky130_fd_sc_hd__a221oi_2 abstract view
.subckt sky130_fd_sc_hd__a221oi_2 A1 A2 B1 B2 C1 VGND VNB VPB VPWR Y
.ends

* Black-box entry subcircuit for sky130_fd_sc_hd__o211ai_1 abstract view
.subckt sky130_fd_sc_hd__o211ai_1 A1 A2 B1 C1 VGND VNB VPB VPWR Y
.ends

* Black-box entry subcircuit for sky130_fd_sc_hd__diode_2 abstract view
.subckt sky130_fd_sc_hd__diode_2 DIODE VGND VNB VPB VPWR
.ends

* Black-box entry subcircuit for sky130_fd_sc_hd__buf_8 abstract view
.subckt sky130_fd_sc_hd__buf_8 A VGND VNB VPB VPWR X
.ends

* Black-box entry subcircuit for sky130_fd_sc_hd__o21ai_4 abstract view
.subckt sky130_fd_sc_hd__o21ai_4 A1 A2 B1 VGND VNB VPB VPWR Y
.ends

.subckt top VGND VPWR clk m_tdata[0] m_tdata[10] m_tdata[11] m_tdata[12] m_tdata[13]
+ m_tdata[14] m_tdata[15] m_tdata[16] m_tdata[17] m_tdata[18] m_tdata[19] m_tdata[1]
+ m_tdata[20] m_tdata[21] m_tdata[22] m_tdata[23] m_tdata[24] m_tdata[25] m_tdata[26]
+ m_tdata[27] m_tdata[28] m_tdata[29] m_tdata[2] m_tdata[30] m_tdata[31] m_tdata[3]
+ m_tdata[4] m_tdata[5] m_tdata[6] m_tdata[7] m_tdata[8] m_tdata[9] m_tready m_tvalid
+ rst s_tdata[0] s_tdata[10] s_tdata[11] s_tdata[12] s_tdata[13] s_tdata[14] s_tdata[15]
+ s_tdata[16] s_tdata[17] s_tdata[18] s_tdata[19] s_tdata[1] s_tdata[20] s_tdata[21]
+ s_tdata[22] s_tdata[23] s_tdata[2] s_tdata[3] s_tdata[4] s_tdata[5] s_tdata[6] s_tdata[7]
+ s_tdata[8] s_tdata[9] s_tlast s_tready s_tvalid
X_3155_ _0387_ _0390_ _0407_ VGND VGND VPWR VPWR _0408_ sky130_fd_sc_hd__or3_1
X_3086_ _0339_ _0340_ VGND VGND VPWR VPWR _0341_ sky130_fd_sc_hd__nand2_1
XTAP_TAPCELL_ROW_65_732 VGND VPWR sky130_fd_sc_hd__tapvpwrvgnd_1
XFILLER_0_76_133 VGND VGND VPWR VPWR sky130_fd_sc_hd__decap_6
XTAP_TAPCELL_ROW_37_489 VGND VPWR sky130_fd_sc_hd__tapvpwrvgnd_1
X_3988_ _1159_ _1161_ _1211_ VGND VGND VPWR VPWR _1212_ sky130_fd_sc_hd__o21a_1
X_2939_ _0191_ _0196_ VGND VGND VPWR VPWR _0198_ sky130_fd_sc_hd__nand2_1
XTAP_TAPCELL_ROW_20_345 VGND VPWR sky130_fd_sc_hd__tapvpwrvgnd_1
XFILLER_0_32_269 VGND VGND VPWR VPWR sky130_fd_sc_hd__fill_1
X_4609_ _1775_ _1793_ VGND VGND VPWR VPWR _1794_ sky130_fd_sc_hd__and2_1
XTAP_TAPCELL_ROW_28_412 VGND VPWR sky130_fd_sc_hd__tapvpwrvgnd_1
XFILLER_0_23_18 VGND VGND VPWR VPWR sky130_fd_sc_hd__fill_1
XFILLER_0_23_29 VPWR VGND VPWR VGND sky130_ef_sc_hd__decap_12
XTAP_TAPCELL_ROW_71_779 VGND VPWR sky130_fd_sc_hd__tapvpwrvgnd_1
XFILLER_0_67_199 VPWR VGND VPWR VGND sky130_ef_sc_hd__decap_12
XFILLER_0_48_391 VGND VGND VPWR VPWR sky130_fd_sc_hd__fill_2
XFILLER_0_23_225 VGND VGND VPWR VPWR sky130_fd_sc_hd__decap_6
Xrebuffer7 net70 VGND VGND VPWR VPWR net71 sky130_fd_sc_hd__dlygate4sd1_1
XFILLER_0_23_269 VGND VGND VPWR VPWR sky130_fd_sc_hd__decap_4
XPHY_EDGE_ROW_39_Left_121 VGND VGND VPWR VPWR sky130_fd_sc_hd__decap_3
XFILLER_0_48_15 VPWR VGND VPWR VGND sky130_ef_sc_hd__decap_12
XFILLER_0_31_291 VPWR VGND VPWR VGND sky130_ef_sc_hd__decap_12
XTAP_TAPCELL_ROW_79_846 VGND VPWR sky130_fd_sc_hd__tapvpwrvgnd_1
XFILLER_0_3_39 VPWR VGND VPWR VGND sky130_ef_sc_hd__decap_12
XPHY_EDGE_ROW_48_Left_130 VGND VGND VPWR VPWR sky130_fd_sc_hd__decap_3
XTAP_TAPCELL_ROW_62_702 VGND VPWR sky130_fd_sc_hd__tapvpwrvgnd_1
X_3911_ _0468_ u_interface.u_compute_core.relu_data\[15\] _1087_ VGND VGND VPWR VPWR
+ _1136_ sky130_fd_sc_hd__and3_1
X_3842_ _1036_ _1037_ _1067_ VGND VGND VPWR VPWR _1069_ sky130_fd_sc_hd__a21oi_1
XFILLER_0_46_317 VGND VGND VPWR VPWR sky130_fd_sc_hd__decap_8
XFILLER_0_73_169 VGND VGND VPWR VPWR sky130_fd_sc_hd__decap_3
XFILLER_0_6_403 VGND VGND VPWR VPWR sky130_fd_sc_hd__fill_2
X_3773_ _0639_ u_interface.u_compute_core.relu_data\[12\] VGND VGND VPWR VPWR _1001_
+ sky130_fd_sc_hd__nand2_1
X_2724_ _2130_ _2131_ VGND VGND VPWR VPWR _2132_ sky130_fd_sc_hd__nand2_1
XFILLER_0_54_383 VPWR VGND VPWR VGND sky130_ef_sc_hd__decap_12
X_2655_ _2064_ u_interface.u_compute_core.mac_accum\[16\] VGND VGND VPWR VPWR _2073_
+ sky130_fd_sc_hd__or2_1
X_4325_ _0432_ _1893_ VGND VGND VPWR VPWR _1542_ sky130_fd_sc_hd__nand2_1
XFILLER_0_10_442 VGND VGND VPWR VPWR sky130_fd_sc_hd__fill_2
X_2586_ _2012_ _2013_ net105 _2006_ VGND VGND VPWR VPWR _0065_ sky130_fd_sc_hd__a2bb2o_1
X_4256_ _1439_ _1441_ VGND VGND VPWR VPWR _1474_ sky130_fd_sc_hd__or2_1
X_3207_ _0449_ VGND VGND VPWR VPWR _0450_ sky130_fd_sc_hd__clkbuf_2
X_4187_ _1297_ _1349_ _1347_ VGND VGND VPWR VPWR _1407_ sky130_fd_sc_hd__a21oi_1
X_3138_ _0390_ _0391_ net127 _2026_ VGND VGND VPWR VPWR _0104_ sky130_fd_sc_hd__a2bb2o_1
X_3069_ _0281_ _0324_ VGND VGND VPWR VPWR _0325_ sky130_fd_sc_hd__or2_1
XFILLER_0_49_111 VGND VGND VPWR VPWR sky130_fd_sc_hd__fill_1
XFILLER_0_49_177 VGND VGND VPWR VPWR sky130_fd_sc_hd__fill_1
XFILLER_0_72_180 VPWR VGND VPWR VGND sky130_ef_sc_hd__decap_12
XFILLER_0_18_29 VGND VGND VPWR VPWR sky130_fd_sc_hd__decap_6
XFILLER_0_28_306 VGND VGND VPWR VPWR sky130_fd_sc_hd__fill_2
XFILLER_0_68_475 VGND VGND VPWR VPWR sky130_fd_sc_hd__fill_1
XFILLER_0_55_169 VGND VGND VPWR VPWR sky130_fd_sc_hd__decap_6
XFILLER_0_3_417 VPWR VGND VPWR VGND sky130_ef_sc_hd__decap_12
X_2440_ _1813_ _1903_ VGND VGND VPWR VPWR _1904_ sky130_fd_sc_hd__and2_1
X_2371_ u_interface.u_compute_core.relu_data\[11\] VGND VGND VPWR VPWR _1853_ sky130_fd_sc_hd__buf_2
X_4110_ _1325_ _1330_ VGND VGND VPWR VPWR _1331_ sky130_fd_sc_hd__nor2b_1
XFILLER_0_75_57 VPWR VGND VPWR VGND sky130_ef_sc_hd__decap_12
XTAP_TAPCELL_ROW_39_507 VGND VPWR sky130_fd_sc_hd__tapvpwrvgnd_1
X_4041_ _1261_ _1263_ VGND VGND VPWR VPWR _1264_ sky130_fd_sc_hd__xnor2_1
XTAP_TAPCELL_ROW_47_573 VGND VPWR sky130_fd_sc_hd__tapvpwrvgnd_1
XFILLER_0_24_50 VGND VGND VPWR VPWR sky130_fd_sc_hd__decap_4
XFILLER_0_19_317 VGND VGND VPWR VPWR sky130_fd_sc_hd__decap_6
XFILLER_0_27_350 VPWR VGND VPWR VGND sky130_ef_sc_hd__decap_12
X_3825_ _0639_ _1856_ _1000_ _1051_ VGND VGND VPWR VPWR _1052_ sky130_fd_sc_hd__a31o_1
X_3756_ _0938_ _0983_ _0984_ _0667_ VGND VGND VPWR VPWR _0129_ sky130_fd_sc_hd__o211a_1
Xclkbuf_4_12_0_clk clknet_0_clk VGND VGND VPWR VPWR clknet_4_12_0_clk sky130_fd_sc_hd__clkbuf_8
X_2707_ _2095_ _2112_ _2116_ VGND VGND VPWR VPWR _2117_ sky130_fd_sc_hd__and3_1
XFILLER_0_71_3 VPWR VGND VPWR VGND sky130_ef_sc_hd__decap_12
X_3687_ _0863_ _0865_ VGND VGND VPWR VPWR _0917_ sky130_fd_sc_hd__and2_1
XFILLER_0_2_483 VGND VGND VPWR VPWR sky130_fd_sc_hd__fill_1
X_2638_ u_interface.u_compute_core.u_mac.product_reg\[14\] u_interface.u_compute_core.mac_accum\[14\]
+ VGND VGND VPWR VPWR _2058_ sky130_fd_sc_hd__or2_1
X_2569_ _1973_ _1997_ _1998_ _1980_ net103 VGND VGND VPWR VPWR _0063_ sky130_fd_sc_hd__a32o_1
X_4308_ _1467_ _1517_ _1518_ VGND VGND VPWR VPWR _1525_ sky130_fd_sc_hd__nor3b_1
X_4239_ _1456_ _1457_ VGND VGND VPWR VPWR _1458_ sky130_fd_sc_hd__nand2_1
XFILLER_0_69_217 VGND VGND VPWR VPWR sky130_fd_sc_hd__decap_6
XTAP_TAPCELL_ROW_81_874 VGND VPWR sky130_fd_sc_hd__tapvpwrvgnd_1
XTAP_TAPCELL_ROW_81_863 VGND VPWR sky130_fd_sc_hd__tapvpwrvgnd_1
XFILLER_0_65_423 VGND VGND VPWR VPWR sky130_fd_sc_hd__decap_3
XFILLER_0_37_147 VGND VGND VPWR VPWR sky130_fd_sc_hd__decap_8
XFILLER_0_37_169 VGND VGND VPWR VPWR sky130_fd_sc_hd__decap_4
XFILLER_0_52_106 VGND VGND VPWR VPWR sky130_fd_sc_hd__decap_8
XFILLER_0_20_19 VGND VGND VPWR VPWR sky130_fd_sc_hd__decap_8
XFILLER_0_33_331 VGND VGND VPWR VPWR sky130_fd_sc_hd__decap_4
XFILLER_0_52_139 VGND VGND VPWR VPWR sky130_fd_sc_hd__fill_1
XFILLER_0_0_29 VPWR VGND VPWR VGND sky130_ef_sc_hd__decap_12
XFILLER_0_61_15 VPWR VGND VPWR VGND sky130_ef_sc_hd__decap_12
XTAP_TAPCELL_ROW_44_554 VGND VPWR sky130_fd_sc_hd__tapvpwrvgnd_1
XFILLER_0_68_283 VGND VGND VPWR VPWR sky130_fd_sc_hd__fill_1
XFILLER_0_16_309 VGND VGND VPWR VPWR sky130_fd_sc_hd__fill_2
X_3610_ u_interface.core_attn_out\[9\] _0841_ VGND VGND VPWR VPWR _0842_ sky130_fd_sc_hd__xor2_1
X_4590_ _1775_ _1780_ VGND VGND VPWR VPWR _1781_ sky130_fd_sc_hd__and2_1
XFILLER_0_3_225 VPWR VGND VPWR VGND sky130_ef_sc_hd__decap_12
X_3541_ _0770_ _0773_ VGND VGND VPWR VPWR _0774_ sky130_fd_sc_hd__xnor2_2
X_3472_ net65 _0661_ _0659_ VGND VGND VPWR VPWR _0707_ sky130_fd_sc_hd__a21oi_1
X_2423_ u_interface.u_compute_core.scaled_data\[24\] _1814_ _1891_ _1816_ VGND VGND
+ VPWR VPWR _1892_ sky130_fd_sc_hd__o2bb2a_1
X_2354_ u_interface.u_compute_core.scaled_data\[7\] _1815_ _1839_ _1817_ VGND VGND
+ VPWR VPWR _1840_ sky130_fd_sc_hd__o2bb2a_1
X_4024_ _0423_ _1246_ _1197_ _0427_ VGND VGND VPWR VPWR _1247_ sky130_fd_sc_hd__a22o_1
XFILLER_0_66_209 VGND VGND VPWR VPWR sky130_fd_sc_hd__decap_8
XFILLER_0_74_253 VPWR VGND VPWR VGND sky130_ef_sc_hd__decap_12
XFILLER_0_19_169 VPWR VGND VPWR VGND sky130_ef_sc_hd__decap_12
XFILLER_0_74_297 VGND VGND VPWR VPWR sky130_fd_sc_hd__decap_4
X_3808_ _0978_ _1029_ _1027_ VGND VGND VPWR VPWR _1035_ sky130_fd_sc_hd__o21a_1
XFILLER_0_15_353 VPWR VGND VPWR VGND sky130_ef_sc_hd__decap_12
X_4788_ clknet_4_11_0_clk _0153_ VGND VGND VPWR VPWR net54 sky130_fd_sc_hd__dfxtp_1
XFILLER_0_70_470 VGND VGND VPWR VPWR sky130_fd_sc_hd__decap_6
X_3739_ _0965_ _0967_ VGND VGND VPWR VPWR _0968_ sky130_fd_sc_hd__xnor2_1
XTAP_TAPCELL_ROW_7_235 VGND VPWR sky130_fd_sc_hd__tapvpwrvgnd_1
XTAP_TAPCELL_ROW_58_668 VGND VPWR sky130_fd_sc_hd__tapvpwrvgnd_1
XFILLER_0_57_209 VGND VGND VPWR VPWR sky130_fd_sc_hd__fill_2
XFILLER_0_38_401 VPWR VGND VPWR VGND sky130_ef_sc_hd__decap_12
XFILLER_0_38_434 VGND VGND VPWR VPWR sky130_fd_sc_hd__fill_2
XTAP_TAPCELL_ROW_41_524 VGND VPWR sky130_fd_sc_hd__tapvpwrvgnd_1
XFILLER_0_25_117 VGND VGND VPWR VPWR sky130_fd_sc_hd__fill_1
XFILLER_0_53_426 VPWR VGND VPWR VGND sky130_ef_sc_hd__decap_12
XFILLER_0_18_191 VGND VGND VPWR VPWR sky130_fd_sc_hd__decap_4
XFILLER_0_40_109 VPWR VGND VPWR VGND sky130_ef_sc_hd__decap_12
XFILLER_0_21_378 VGND VGND VPWR VPWR sky130_fd_sc_hd__fill_2
XFILLER_0_56_15 VPWR VGND VPWR VGND sky130_ef_sc_hd__decap_12
XFILLER_0_56_37 VGND VGND VPWR VPWR sky130_fd_sc_hd__decap_3
X_2972_ _0228_ _0229_ VGND VGND VPWR VPWR _0230_ sky130_fd_sc_hd__nor2_1
XFILLER_0_29_423 VGND VGND VPWR VPWR sky130_fd_sc_hd__decap_6
XFILLER_0_29_445 VGND VGND VPWR VPWR sky130_fd_sc_hd__decap_3
XFILLER_0_56_220 VGND VGND VPWR VPWR sky130_fd_sc_hd__fill_2
XFILLER_0_16_106 VPWR VGND VPWR VGND sky130_ef_sc_hd__decap_12
X_4711_ clknet_4_4_0_clk _0076_ VGND VGND VPWR VPWR u_interface.u_compute_core.mac_accum\[17\]
+ sky130_fd_sc_hd__dfxtp_1
XFILLER_0_56_253 VGND VGND VPWR VPWR sky130_fd_sc_hd__fill_1
XFILLER_0_16_139 VGND VGND VPWR VPWR sky130_fd_sc_hd__fill_1
X_4642_ clknet_4_3_0_clk _0007_ VGND VGND VPWR VPWR u_interface.u_compute_core.relu_data\[7\]
+ sky130_fd_sc_hd__dfxtp_2
XFILLER_0_56_297 VGND VGND VPWR VPWR sky130_fd_sc_hd__decap_8
XFILLER_0_71_278 VGND VGND VPWR VPWR sky130_fd_sc_hd__fill_2
XTAP_TAPCELL_ROW_12_281 VGND VPWR sky130_fd_sc_hd__tapvpwrvgnd_1
X_4573_ net32 u_interface.core_attn_out\[12\] _1760_ VGND VGND VPWR VPWR _1769_ sky130_fd_sc_hd__mux2_1
X_3524_ _0715_ _0757_ VGND VGND VPWR VPWR _0758_ sky130_fd_sc_hd__nand2_1
X_3455_ _0437_ _1832_ _0641_ VGND VGND VPWR VPWR _0690_ sky130_fd_sc_hd__and3_1
X_2406_ net2 VGND VGND VPWR VPWR _1879_ sky130_fd_sc_hd__buf_4
X_3386_ _0588_ _0584_ VGND VGND VPWR VPWR _0622_ sky130_fd_sc_hd__and2b_1
X_2337_ u_interface.u_compute_core.relu_data\[3\] VGND VGND VPWR VPWR _1827_ sky130_fd_sc_hd__inv_2
XFILLER_0_34_3 VGND VGND VPWR VPWR sky130_fd_sc_hd__decap_4
XFILLER_0_79_334 VGND VGND VPWR VPWR sky130_fd_sc_hd__fill_2
XFILLER_0_79_312 VGND VGND VPWR VPWR sky130_fd_sc_hd__fill_1
X_4007_ _1228_ _1229_ VGND VGND VPWR VPWR _1230_ sky130_fd_sc_hd__xnor2_1
XFILLER_0_39_209 VPWR VGND VPWR VGND sky130_ef_sc_hd__decap_12
XFILLER_0_1_83 VPWR VGND VPWR VGND sky130_ef_sc_hd__decap_12
XFILLER_0_47_242 VPWR VGND VPWR VGND sky130_ef_sc_hd__decap_12
XFILLER_0_62_212 VGND VGND VPWR VPWR sky130_fd_sc_hd__fill_2
XFILLER_0_50_418 VGND VGND VPWR VPWR sky130_fd_sc_hd__fill_2
XFILLER_0_30_120 VGND VGND VPWR VPWR sky130_fd_sc_hd__decap_6
Xhold41 u_interface.u_compute_core.mac_accum\[6\] VGND VGND VPWR VPWR net105 sky130_fd_sc_hd__dlygate4sd3_1
Xhold30 u_interface.u_compute_core.scaled_data\[0\] VGND VGND VPWR VPWR net94 sky130_fd_sc_hd__dlygate4sd3_1
XFILLER_0_26_29 VPWR VGND VPWR VGND sky130_ef_sc_hd__decap_12
Xhold63 u_interface.u_compute_core.u_mac.product_reg\[13\] VGND VGND VPWR VPWR net127
+ sky130_fd_sc_hd__dlygate4sd3_1
Xhold52 u_interface.u_compute_core.mac_accum\[0\] VGND VGND VPWR VPWR net116 sky130_fd_sc_hd__dlygate4sd3_1
Xhold74 u_interface.u_compute_core.mac_accum\[16\] VGND VGND VPWR VPWR net138 sky130_fd_sc_hd__dlygate4sd3_1
Xhold85 u_interface.u_compute_core.mac_accum\[13\] VGND VGND VPWR VPWR net149 sky130_fd_sc_hd__dlygate4sd3_1
XTAP_TAPCELL_ROW_18_329 VGND VPWR sky130_fd_sc_hd__tapvpwrvgnd_1
XTAP_TAPCELL_ROW_26_395 VGND VPWR sky130_fd_sc_hd__tapvpwrvgnd_1
XFILLER_0_38_253 VPWR VGND VPWR VGND sky130_ef_sc_hd__decap_12
XPHY_EDGE_ROW_20_Left_102 VGND VGND VPWR VPWR sky130_fd_sc_hd__decap_3
XFILLER_0_53_256 VGND VGND VPWR VPWR sky130_fd_sc_hd__decap_8
XFILLER_0_21_175 VGND VGND VPWR VPWR sky130_fd_sc_hd__fill_1
X_3240_ _1967_ VGND VGND VPWR VPWR _0480_ sky130_fd_sc_hd__buf_2
X_3171_ _1812_ VGND VGND VPWR VPWR _0420_ sky130_fd_sc_hd__clkbuf_4
Xrebuffer17 _0792_ VGND VGND VPWR VPWR net81 sky130_fd_sc_hd__dlygate4sd1_1
XTAP_TAPCELL_ROW_52_619 VGND VPWR sky130_fd_sc_hd__tapvpwrvgnd_1
XFILLER_0_17_426 VGND VGND VPWR VPWR sky130_fd_sc_hd__decap_3
X_2955_ _0182_ _2303_ _0213_ VGND VGND VPWR VPWR _0214_ sky130_fd_sc_hd__a21oi_1
XFILLER_0_32_83 VGND VGND VPWR VPWR sky130_fd_sc_hd__fill_1
X_2886_ net12 net7 net9 VGND VGND VPWR VPWR _2281_ sky130_fd_sc_hd__a21o_1
XTAP_TAPCELL_ROW_60_685 VGND VPWR sky130_fd_sc_hd__tapvpwrvgnd_1
X_4625_ _1804_ VGND VGND VPWR VPWR _0178_ sky130_fd_sc_hd__clkbuf_1
X_4556_ _1757_ VGND VGND VPWR VPWR _0156_ sky130_fd_sc_hd__clkbuf_1
XFILLER_0_12_120 VGND VGND VPWR VPWR sky130_fd_sc_hd__decap_4
X_3507_ _0693_ _0695_ VGND VGND VPWR VPWR _0741_ sky130_fd_sc_hd__or2_1