*SPEF "ieee 1481-1999"
*DESIGN "top"
*DATE "04:07:50 Saturday May 23, 2026"
*VENDOR "The OpenROAD Project"
*PROGRAM "OpenROAD"
*VERSION "b16bda7e82721d10566ff7e2b68f1ff0be9f9e38"
*DESIGN_FLOW "NAME_SCOPE LOCAL" "PIN_CAP NONE"
*DIVIDER /
*DELIMITER :
*BUS_DELIMITER []
*T_UNIT 1 NS
*C_UNIT 1 PF
*R_UNIT 1 OHM
*L_UNIT 1 HENRY

*NAME_MAP
*3 clk
*4 m_tdata[0]
*5 m_tdata[10]
*6 m_tdata[11]
*7 m_tdata[12]
*8 m_tdata[13]
*9 m_tdata[14]
*10 m_tdata[15]
*11 m_tdata[16]
*12 m_tdata[17]
*13 m_tdata[18]
*14 m_tdata[19]
*15 m_tdata[1]
*16 m_tdata[20]
*17 m_tdata[21]
*18 m_tdata[22]
*19 m_tdata[23]
*20 m_tdata[24]
*21 m_tdata[25]
*22 m_tdata[26]
*23 m_tdata[27]
*24 m_tdata[28]
*25 m_tdata[29]
*26 m_tdata[2]
*27 m_tdata[30]
*28 m_tdata[31]
*29 m_tdata[3]
*30 m_tdata[4]
*31 m_tdata[5]
*32 m_tdata[6]
*33 m_tdata[7]
*34 m_tdata[8]
*35 m_tdata[9]
*36 m_tready
*37 m_tvalid
*38 rst
*39 s_tdata[0]
*40 s_tdata[10]
*41 s_tdata[11]
*42 s_tdata[12]
*43 s_tdata[13]
*44 s_tdata[14]
*45 s_tdata[15]
*46 s_tdata[16]
*47 s_tdata[17]
*48 s_tdata[18]
*49 s_tdata[19]
*50 s_tdata[1]
*51 s_tdata[20]
*52 s_tdata[21]
*53 s_tdata[22]
*54 s_tdata[23]
*55 s_tdata[2]
*56 s_tdata[3]
*57 s_tdata[4]
*58 s_tdata[5]
*59 s_tdata[6]
*60 s_tdata[7]
*61 s_tdata[8]
*62 s_tdata[9]
*63 s_tlast
*64 s_tready
*65 s_tvalid
*66 _0000_
*67 _0001_
*68 _0002_
*69 _0003_
*70 _0004_
*71 _0005_
*72 _0006_
*73 _0007_
*74 _0008_
*75 _0009_
*76 _0010_
*77 _0011_
*78 _0012_
*79 _0013_
*80 _0014_
*81 _0015_
*82 _0016_
*83 _0017_
*84 _0018_
*85 _0019_
*86 _0020_
*87 _0021_
*88 _0022_
*89 _0023_
*90 _0024_
*91 _0025_
*92 _0026_
*93 _0027_
*94 _0028_
*95 _0029_
*96 _0030_
*97 _0031_
*98 _0032_
*99 _0033_
*100 _0034_
*101 _0035_
*102 _0036_
*103 _0037_
*104 _0038_
*105 _0039_
*106 _0040_
*107 _0041_
*108 _0042_
*109 _0043_
*110 _0044_
*111 _0045_
*112 _0046_
*113 _0047_
*114 _0048_
*115 _0049_
*116 _0050_
*117 _0051_
*118 _0052_
*119 _0053_
*120 _0054_
*121 _0055_
*122 _0056_
*123 _0057_
*124 _0058_
*125 _0059_
*126 _0060_
*127 _0061_
*128 _0062_
*129 _0063_
*130 _0064_
*131 _0065_
*132 _0066_
*133 _0067_
*134 _0068_
*135 _0069_
*136 _0070_
*137 _0071_
*138 _0072_
*139 _0073_
*140 _0074_
*141 _0075_
*142 _0076_
*143 _0077_
*144 _0078_
*145 _0079_
*146 _0080_
*147 _0081_
*148 _0082_
*149 _0083_
*150 _0084_
*151 _0085_
*152 _0086_
*153 _0087_
*154 _0088_
*155 _0089_
*156 _0090_
*157 _0091_
*158 _0092_
*159 _0093_
*160 _0094_
*161 _0095_
*162 _0096_
*163 _0097_
*164 _0098_
*165 _0099_
*166 _0100_
*167 _0101_
*168 _0102_
*169 _0103_
*170 _0104_
*171 _0105_
*172 _0106_
*173 _0107_
*174 _0108_
*175 _0109_
*176 _0110_
*177 _0111_
*178 _0112_
*179 _0113_
*180 _0114_
*181 _0115_
*182 _0116_
*183 _0117_
*184 _0118_
*185 _0119_
*186 _0120_
*187 _0121_
*188 _0122_
*189 _0123_
*190 _0124_
*191 _0125_
*192 _0126_
*193 _0127_
*194 _0128_
*195 _0129_
*196 _0130_
*197 _0131_
*198 _0132_
*199 _0133_
*200 _0134_
*201 _0135_
*202 _0136_
*203 _0137_
*204 _0138_
*205 _0139_
*206 _0140_
*207 _0141_
*208 _0142_
*209 _0143_
*210 _0144_
*211 _0145_
*212 _0146_
*213 _0147_
*214 _0148_
*215 _0149_
*216 _0150_
*217 _0151_
*218 _0152_
*219 _0153_
*220 _0154_
*221 _0155_
*222 _0156_
*223 _0157_
*224 _0158_
*225 _0159_
*226 _0160_
*227 _0161_
*228 _0162_
*229 _0163_
*230 _0164_
*231 _0165_
*232 _0166_
*233 _0167_
*234 _0168_
*235 _0169_
*236 _0170_
*237 _0171_
*238 _0172_
*239 _0173_
*240 _0174_
*241 _0175_
*242 _0176_
*243 _0177_
*244 _0178_
*245 _0179_
*246 _0180_
*247 _0181_
*248 _0182_
*249 _0183_
*250 _0184_
*251 _0185_
*252 _0186_
*253 _0187_
*254 _0188_
*255 _0189_
*256 _0190_
*257 _0191_
*258 _0192_
*259 _0193_
*260 _0194_
*261 _0195_
*262 _0196_
*263 _0197_
*264 _0198_
*265 _0199_
*266 _0200_
*267 _0201_
*268 _0202_
*269 _0203_
*270 _0204_
*271 _0205_
*272 _0206_
*273 _0207_
*274 _0208_
*275 _0209_
*276 _0210_
*277 _0211_
*278 _0212_
*279 _0213_
*280 _0214_
*281 _0215_
*282 _0216_
*283 _0217_
*284 _0218_
*285 _0219_
*286 _0220_
*287 _0221_
*288 _0222_
*289 _0223_
*290 _0224_
*291 _0225_
*292 _0226_
*293 _0227_
*294 _0228_
*295 _0229_
*296 _0230_
*297 _0231_
*298 _0232_
*299 _0233_
*300 _0234_
*301 _0235_
*302 _0236_
*303 _0237_
*304 _0238_
*305 _0239_
*306 _0240_
*307 _0241_
*308 _0242_
*309 _0243_
*310 _0244_
*311 _0245_
*312 _0246_
*313 _0247_
*314 _0248_
*315 _0249_
*316 _0250_
*317 _0251_
*318 _0252_
*319 _0253_
*320 _0254_
*321 _0255_
*322 _0256_
*323 _0257_
*324 _0258_
*325 _0259_
*326 _0260_
*327 _0261_
*328 _0262_
*329 _0263_
*330 _0264_
*331 _0265_
*332 _0266_
*333 _0267_
*334 _0268_
*335 _0269_
*336 _0270_
*337 _0271_
*338 _0272_
*339 _0273_
*340 _0274_
*341 _0275_
*342 _0276_
*343 _0277_
*344 _0278_
*345 _0279_
*346 _0280_
*347 _0281_
*348 _0282_
*349 _0283_
*350 _0284_
*351 _0285_
*352 _0286_
*353 _0287_
*354 _0288_
*355 _0289_
*356 _0290_
*357 _0291_
*358 _0292_
*359 _0293_
*360 _0294_
*361 _0295_
*362 _0296_
*363 _0297_
*364 _0298_
*365 _0299_
*366 _0300_
*367 _0301_
*368 _0302_
*369 _0303_
*370 _0304_
*371 _0305_
*372 _0306_
*373 _0307_
*374 _0308_
*375 _0309_
*376 _0310_
*377 _0311_
*378 _0312_
*379 _0313_
*380 _0314_
*381 _0315_
*382 _0316_
*383 _0317_
*384 _0318_
*385 _0319_
*386 _0320_
*387 _0321_
*388 _0322_
*389 _0323_
*390 _0324_
*391 _0325_
*392 _0326_
*393 _0327_
*394 _0328_
*395 _0329_
*396 _0330_
*397 _0331_
*398 _0332_
*399 _0333_
*400 _0334_
*401 _0335_
*402 _0336_
*403 _0337_
*404 _0338_
*405 _0339_
*406 _0340_
*407 _0341_
*408 _0342_
*409 _0343_
*410 _0344_
*411 _0345_
*412 _0346_
*413 _0347_
*414 _0348_
*415 _0349_
*416 _0350_
*417 _0351_
*418 _0352_
*419 _0353_
*420 _0354_
*421 _0355_
*422 _0356_
*423 _0357_
*424 _0358_
*425 _0359_
*426 _0360_
*427 _0361_
*428 _0362_
*429 _0363_
*430 _0364_
*431 _0365_
*432 _0366_
*433 _0367_
*434 _0368_
*435 _0369_
*436 _0370_
*437 _0371_
*438 _0372_
*439 _0373_
*440 _0374_
*441 _0375_
*442 _0376_
*443 _0377_
*444 _0378_
*445 _0379_
*446 _0380_
*447 _0381_
*448 _0382_
*449 _0383_
*450 _0384_
*451 _0385_
*452 _0386_
*453 _0387_
*454 _0388_
*455 _0389_
*456 _0390_
*457 _0391_
*458 _0392_
*459 _0393_
*460 _0394_
*461 _0395_
*462 _0396_
*463 _0397_
*464 _0398_
*465 _0399_
*466 _0400_
*467 _0401_
*468 _0402_
*469 _0403_
*470 _0404_
*471 _0405_
*472 _0406_
*473 _0407_
*474 _0408_
*475 _0409_
*476 _0410_
*477 _0411_
*478 _0412_
*479 _0413_
*480 _0414_
*481 _0415_
*482 _0416_
*483 _0417_
*484 _0418_
*485 _0419_
*486 _0420_
*487 _0421_
*488 _0422_
*489 _0423_
*490 _0424_
*491 _0425_
*492 _0426_
*493 _0427_
*494 _0428_
*495 _0429_
*496 _0430_
*497 _0431_
*498 _0432_
*499 _0433_
*500 _0434_
*501 _0435_
*502 _0436_
*503 _0437_
*504 _0438_
*505 _0439_
*506 _0440_
*507 _0441_
*508 _0442_
*509 _0443_
*510 _0444_
*511 _0445_
*512 _0446_
*513 _0447_
*514 _0448_
*515 _0449_
*516 _0450_
*517 _0451_
*518 _0452_
*519 _0453_
*520 _0454_
*521 _0455_
*522 _0456_
*523 _0457_
*524 _0458_
*525 _0459_
*526 _0460_
*527 _0461_
*528 _0462_
*529 _0463_
*530 _0464_
*531 _0465_
*532 _0466_
*533 _0467_
*534 _0468_
*535 _0469_
*536 _0470_
*537 _0471_
*538 _0472_
*539 _0473_
*540 _0474_
*541 _0475_
*542 _0476_
*543 _0477_
*544 _0478_
*545 _0479_
*546 _0480_
*547 _0481_
*548 _0482_
*549 _0483_
*550 _0484_
*551 _0485_
*552 _0486_
*553 _0487_
*554 _0488_
*555 _0489_
*556 _0490_
*557 _0491_
*558 _0492_
*559 _0493_
*560 _0494_
*561 _0495_
*562 _0496_
*563 _0497_
*564 _0498_
*565 _0499_
*566 _0500_
*567 _0501_
*568 _0502_
*569 _0503_
*570 _0504_
*571 _0505_
*572 _0506_
*573 _0507_
*574 _0508_
*575 _0509_
*576 _0510_
*577 _0511_
*578 _0512_
*579 _0513_
*580 _0514_
*581 _0515_
*582 _0516_
*583 _0517_
*584 _0518_
*585 _0519_
*586 _0520_
*587 _0521_
*588 _0522_
*589 _0523_
*590 _0524_
*591 _0525_
*592 _0526_
*593 _0527_
*594 _0528_
*595 _0529_
*596 _0530_
*597 _0531_
*598 _0532_
*599 _0533_
*600 _0534_
*601 _0535_
*602 _0536_
*603 _0537_
*604 _0538_
*605 _0539_
*606 _0540_
*607 _0541_
*608 _0542_
*609 _0543_
*610 _0544_
*611 _0545_
*612 _0546_
*613 _0547_
*614 _0548_
*615 _0549_
*616 _0550_
*617 _0551_
*618 _0552_
*619 _0553_
*620 _0554_
*621 _0555_
*622 _0556_
*623 _0557_
*624 _0558_
*625 _0559_
*626 _0560_
*627 _0561_
*628 _0562_
*629 _0563_
*630 _0564_
*631 _0565_
*632 _0566_
*633 _0567_
*634 _0568_
*635 _0569_
*636 _0570_
*637 _0571_
*638 _0572_
*639 _0573_
*640 _0574_
*641 _0575_
*642 _0576_
*643 _0577_
*644 _0578_
*645 _0579_
*646 _0580_
*647 _0581_
*648 _0582_
*649 _0583_
*650 _0584_
*651 _0585_
*652 _0586_
*653 _0587_
*654 _0588_
*655 _0589_
*656 _0590_
*657 _0591_
*658 _0592_
*659 _0593_
*660 _0594_
*661 _0595_
*662 _0596_
*663 _0597_
*664 _0598_
*665 _0599_
*666 _0600_
*667 _0601_
*668 _0602_
*669 _0603_
*670 _0604_
*671 _0605_
*672 _0606_
*673 _0607_
*674 _0608_
*675 _0609_
*676 _0610_
*677 _0611_
*678 _0612_
*679 _0613_
*680 _0614_
*681 _0615_
*682 _0616_
*683 _0617_
*684 _0618_
*685 _0619_
*686 _0620_
*687 _0621_
*688 _0622_
*689 _0623_
*690 _0624_
*691 _0625_
*692 _0626_
*693 _0627_
*694 _0628_
*695 _0629_
*696 _0630_
*697 _0631_
*698 _0632_
*699 _0633_
*700 _0634_
*701 _0635_
*702 _0636_
*703 _0637_
*704 _0638_
*705 _0639_
*706 _0640_
*707 _0641_
*708 _0642_
*709 _0643_
*710 _0644_
*711 _0645_
*712 _0646_
*713 _0647_
*714 _0648_
*715 _0649_
*716 _0650_
*717 _0651_
*718 _0652_
*719 _0653_
*720 _0654_
*721 _0655_
*722 _0656_
*723 _0657_
*724 _0658_
*725 _0659_
*726 _0660_
*727 _0661_
*728 _0662_
*729 _0663_
*730 _0664_
*731 _0665_
*732 _0666_
*733 _0667_
*734 _0668_
*735 _0669_
*736 _0670_
*737 _0671_
*738 _0672_
*739 _0673_
*740 _0674_
*741 _0675_
*742 _0676_
*743 _0677_
*744 _0678_
*745 _0679_
*746 _0680_
*747 _0681_
*748 _0682_
*749 _0683_
*750 _0684_
*751 _0685_
*752 _0686_
*753 _0687_
*754 _0688_
*755 _0689_
*756 _0690_
*757 _0691_
*758 _0692_
*759 _0693_
*760 _0694_
*761 _0695_
*762 _0696_
*763 _0697_
*764 _0698_
*765 _0699_
*766 _0700_
*767 _0701_
*768 _0702_
*769 _0703_
*770 _0704_
*771 _0705_
*772 _0706_
*773 _0707_
*774 _0708_
*775 _0709_
*776 _0710_
*777 _0711_
*778 _0712_
*779 _0713_
*780 _0714_
*781 _0715_
*782 _0716_
*783 _0717_
*784 _0718_
*785 _0719_
*786 _0720_
*787 _0721_
*788 _0722_
*789 _0723_
*790 _0724_
*791 _0725_
*792 _0726_
*793 _0727_
*794 _0728_
*795 _0729_
*796 _0730_
*797 _0731_
*798 _0732_
*799 _0733_
*800 _0734_
*801 _0735_
*802 _0736_
*803 _0737_
*804 _0738_
*805 _0739_
*806 _0740_
*807 _0741_
*808 _0742_
*809 _0743_
*810 _0744_
*811 _0745_
*812 _0746_
*813 _0747_
*814 _0748_
*815 _0749_
*816 _0750_
*817 _0751_
*818 _0752_
*819 _0753_
*820 _0754_
*821 _0755_
*822 _0756_
*823 _0757_
*824 _0758_
*825 _0759_
*826 _0760_
*827 _0761_
*828 _0762_
*829 _0763_
*830 _0764_
*831 _0765_
*832 _0766_
*833 _0767_
*834 _0768_
*835 _0769_
*836 _0770_
*837 _0771_
*838 _0772_
*839 _0773_
*840 _0774_
*841 _0775_
*842 _0776_
*843 _0777_
*844 _0778_
*845 _0779_
*846 _0780_
*847 _0781_
*848 _0782_
*849 _0783_
*850 _0784_
*851 _0785_
*852 _0786_
*853 _0787_
*854 _0788_
*855 _0789_
*856 _0790_
*857 _0791_
*858 _0792_
*859 _0793_
*860 _0794_
*861 _0795_
*862 _0796_
*863 _0797_
*864 _0798_
*865 _0799_
*866 _0800_
*867 _0801_
*868 _0802_
*869 _0803_
*870 _0804_
*871 _0805_
*872 _0806_
*873 _0807_
*874 _0808_
*875 _0809_
*876 _0810_
*877 _0811_
*878 _0812_
*879 _0813_
*880 _0814_
*881 _0815_
*882 _0816_
*883 _0817_
*884 _0818_
*885 _0819_
*886 _0820_
*887 _0821_
*888 _0822_
*889 _0823_
*890 _0824_
*891 _0825_
*892 _0826_
*893 _0827_
*894 _0828_
*895 _0829_
*896 _0830_
*897 _0831_
*898 _0832_
*899 _0833_
*900 _0834_
*901 _0835_
*902 _0836_
*903 _0837_
*904 _0838_
*905 _0839_
*906 _0840_
*907 _0841_
*908 _0842_
*909 _0843_
*910 _0844_
*911 _0845_
*912 _0846_
*913 _0847_
*914 _0848_
*915 _0849_
*916 _0850_
*917 _0851_
*918 _0852_
*919 _0853_
*920 _0854_
*921 _0855_
*922 _0856_
*923 _0857_
*924 _0858_
*925 _0859_
*926 _0860_
*927 _0861_
*928 _0862_
*929 _0863_
*930 _0864_
*931 _0865_
*932 _0866_
*933 _0867_
*934 _0868_
*935 _0869_
*936 _0870_
*937 _0871_
*938 _0872_
*939 _0873_
*940 _0874_
*941 _0875_
*942 _0876_
*943 _0877_
*944 _0878_
*945 _0879_
*946 _0880_
*947 _0881_
*948 _0882_
*949 _0883_
*950 _0884_
*951 _0885_
*952 _0886_
*953 _0887_
*954 _0888_
*955 _0889_
*956 _0890_
*957 _0891_
*958 _0892_
*959 _0893_
*960 _0894_
*961 _0895_
*962 _0896_
*963 _0897_
*964 _0898_
*965 _0899_
*966 _0900_
*967 _0901_
*968 _0902_
*969 _0903_
*970 _0904_
*971 _0905_
*972 _0906_
*973 _0907_
*974 _0908_
*975 _0909_
*976 _0910_
*977 _0911_
*978 _0912_
*979 _0913_
*980 _0914_
*981 _0915_
*982 _0916_
*983 _0917_
*984 _0918_
*985 _0919_
*986 _0920_
*987 _0921_
*988 _0922_
*989 _0923_
*990 _0924_
*991 _0925_
*992 _0926_
*993 _0927_
*994 _0928_
*995 _0929_
*996 _0930_
*997 _0931_
*998 _0932_
*999 _0933_
*1000 _0934_
*1001 _0935_
*1002 _0936_
*1003 _0937_
*1004 _0938_
*1005 _0939_
*1006 _0940_
*1007 _0941_
*1008 _0942_
*1009 _0943_
*1010 _0944_
*1011 _0945_
*1012 _0946_
*1013 _0947_
*1014 _0948_
*1015 _0949_
*1016 _0950_
*1017 _0951_
*1018 _0952_
*1019 _0953_
*1020 _0954_
*1021 _0955_
*1022 _0956_
*1023 _0957_
*1024 _0958_
*1025 _0959_
*1026 _0960_
*1027 _0961_
*1028 _0962_
*1029 _0963_
*1030 _0964_
*1031 _0965_
*1032 _0966_
*1033 _0967_
*1034 _0968_
*1035 _0969_
*1036 _0970_
*1037 _0971_
*1038 _0972_
*1039 _0973_
*1040 _0974_
*1041 _0975_
*1042 _0976_
*1043 _0977_
*1044 _0978_
*1045 _0979_
*1046 _0980_
*1047 _0981_
*1048 _0982_
*1049 _0983_
*1050 _0984_
*1051 _0985_
*1052 _0986_
*1053 _0987_
*1054 _0988_
*1055 _0989_
*1056 _0990_
*1057 _0991_
*1058 _0992_
*1059 _0993_
*1060 _0994_
*1061 _0995_
*1062 _0996_
*1063 _0997_
*1064 _0998_
*1065 _0999_
*1066 _1000_
*1067 _1001_
*1068 _1002_
*1069 _1003_
*1070 _1004_
*1071 _1005_
*1072 _1006_
*1073 _1007_
*1074 _1008_
*1075 _1009_
*1076 _1010_
*1077 _1011_
*1078 _1012_
*1079 _1013_
*1080 _1014_
*1081 _1015_
*1082 _1016_
*1083 _1017_
*1084 _1018_
*1085 _1019_
*1086 _1020_
*1087 _1021_
*1088 _1022_
*1089 _1023_
*1090 _1024_
*1091 _1025_
*1092 _1026_
*1093 _1027_
*1094 _1028_
*1095 _1029_
*1096 _1030_
*1097 _1031_
*1098 _1032_
*1099 _1033_
*1100 _1034_
*1101 _1035_
*1102 _1036_
*1103 _1037_
*1104 _1038_
*1105 _1039_
*1106 _1040_
*1107 _1041_
*1108 _1042_
*1109 _1043_
*1110 _1044_
*1111 _1045_
*1112 _1046_
*1113 _1047_
*1114 _1048_
*1115 _1049_
*1116 _1050_
*1117 _1051_
*1118 _1052_
*1119 _1053_
*1120 _1054_
*1121 _1055_
*1122 _1056_
*1123 _1057_
*1124 _1058_
*1125 _1059_
*1126 _1060_
*1127 _1061_
*1128 _1062_
*1129 _1063_
*1130 _1064_
*1131 _1065_
*1132 _1066_
*1133 _1067_
*1134 _1068_
*1135 _1069_
*1136 _1070_
*1137 _1071_
*1138 _1072_
*1139 _1073_
*1140 _1074_
*1141 _1075_
*1142 _1076_
*1143 _1077_
*1144 _1078_
*1145 _1079_
*1146 _1080_
*1147 _1081_
*1148 _1082_
*1149 _1083_
*1150 _1084_
*1151 _1085_
*1152 _1086_
*1153 _1087_
*1154 _1088_
*1155 _1089_
*1156 _1090_
*1157 _1091_
*1158 _1092_
*1159 _1093_
*1160 _1094_
*1161 _1095_
*1162 _1096_
*1163 _1097_
*1164 _1098_
*1165 _1099_
*1166 _1100_
*1167 _1101_
*1168 _1102_
*1169 _1103_
*1170 _1104_
*1171 _1105_
*1172 _1106_
*1173 _1107_
*1174 _1108_
*1175 _1109_
*1176 _1110_
*1177 _1111_
*1178 _1112_
*1179 _1113_
*1180 _1114_
*1181 _1115_
*1182 _1116_
*1183 _1117_
*1184 _1118_
*1185 _1119_
*1186 _1120_
*1187 _1121_
*1188 _1122_
*1189 _1123_
*1190 _1124_
*1191 _1125_
*1192 _1126_
*1193 _1127_
*1194 _1128_
*1195 _1129_
*1196 _1130_
*1197 _1131_
*1198 _1132_
*1199 _1133_
*1200 _1134_
*1201 _1135_
*1202 _1136_
*1203 _1137_
*1204 _1138_
*1205 _1139_
*1206 _1140_
*1207 _1141_
*1208 _1142_
*1209 _1143_
*1210 _1144_
*1211 _1145_
*1212 _1146_
*1213 _1147_
*1214 _1148_
*1215 _1149_
*1216 _1150_
*1217 _1151_
*1218 _1152_
*1219 _1153_
*1220 _1154_
*1221 _1155_
*1222 _1156_
*1223 _1157_
*1224 _1158_
*1225 _1159_
*1226 _1160_
*1227 _1161_
*1228 _1162_
*1229 _1163_
*1230 _1164_
*1231 _1165_
*1232 _1166_
*1233 _1167_
*1234 _1168_
*1235 _1169_
*1236 _1170_
*1237 _1171_
*1238 _1172_
*1239 _1173_
*1240 _1174_
*1241 _1175_
*1242 _1176_
*1243 _1177_
*1244 _1178_
*1245 _1179_
*1246 _1180_
*1247 _1181_
*1248 _1182_
*1249 _1183_
*1250 _1184_
*1251 _1185_
*1252 _1186_
*1253 _1187_
*1254 _1188_
*1255 _1189_
*1256 _1190_
*1257 _1191_
*1258 _1192_
*1259 _1193_
*1260 _1194_
*1261 _1195_
*1262 _1196_
*1263 _1197_
*1264 _1198_
*1265 _1199_
*1266 _1200_
*1267 _1201_
*1268 _1202_
*1269 _1203_
*1270 _1204_
*1271 _1205_
*1272 _1206_
*1273 _1207_
*1274 _1208_
*1275 _1209_
*1276 _1210_
*1277 _1211_
*1278 _1212_
*1279 _1213_
*1280 _1214_
*1281 _1215_
*1282 _1216_
*1283 _1217_
*1284 _1218_
*1285 _1219_
*1286 _1220_
*1287 _1221_
*1288 _1222_
*1289 _1223_
*1290 _1224_
*1291 _1225_
*1292 _1226_
*1293 _1227_
*1294 _1228_
*1295 _1229_
*1296 _1230_
*1297 _1231_
*1298 _1232_
*1299 _1233_
*1300 _1234_
*1301 _1235_
*1302 _1236_
*1303 _1237_
*1304 _1238_
*1305 _1239_
*1306 _1240_
*1307 _1241_
*1308 _1242_
*1309 _1243_
*1310 _1244_
*1311 _1245_
*1312 _1246_
*1313 _1247_
*1314 _1248_
*1315 _1249_
*1316 _1250_
*1317 _1251_
*1318 _1252_
*1319 _1253_
*1320 _1254_
*1321 _1255_
*1322 _1256_
*1323 _1257_
*1324 _1258_
*1325 _1259_
*1326 _1260_
*1327 _1261_
*1328 _1262_
*1329 _1263_
*1330 _1264_
*1331 _1265_
*1332 _1266_
*1333 _1267_
*1334 _1268_
*1335 _1269_
*1336 _1270_
*1337 _1271_
*1338 _1272_
*1339 _1273_
*1340 _1274_
*1341 _1275_
*1342 _1276_
*1343 _1277_
*1344 _1278_
*1345 _1279_
*1346 _1280_
*1347 _1281_
*1348 _1282_
*1349 _1283_
*1350 _1284_
*1351 _1285_
*1352 _1286_
*1353 _1287_
*1354 _1288_
*1355 _1289_
*1356 _1290_
*1357 _1291_
*1358 _1292_
*1359 _1293_
*1360 _1294_
*1361 _1295_
*1362 _1296_
*1363 _1297_
*1364 _1298_
*1365 _1299_
*1366 _1300_
*1367 _1301_
*1368 _1302_
*1369 _1303_
*1370 _1304_
*1371 _1305_
*1372 _1306_
*1373 _1307_
*1374 _1308_
*1375 _1309_
*1376 _1310_
*1377 _1311_
*1378 _1312_
*1379 _1313_
*1380 _1314_
*1381 _1315_
*1382 _1316_
*1383 _1317_
*1384 _1318_
*1385 _1319_
*1386 _1320_
*1387 _1321_
*1388 _1322_
*1389 _1323_
*1390 _1324_
*1391 _1325_
*1392 _1326_
*1393 _1327_
*1394 _1328_
*1395 _1329_
*1396 _1330_
*1397 _1331_
*1398 _1332_
*1399 _1333_
*1400 _1334_
*1401 _1335_
*1402 _1336_
*1403 _1337_
*1404 _1338_
*1405 _1339_
*1406 _1340_
*1407 _1341_
*1408 _1342_
*1409 _1343_
*1410 _1344_
*1411 _1345_
*1412 _1346_
*1413 _1347_
*1414 _1348_
*1415 _1349_
*1416 _1350_
*1417 _1351_
*1418 _1352_
*1419 _1353_
*1420 _1354_
*1421 _1355_
*1422 _1356_
*1423 _1357_
*1424 _1358_
*1425 _1359_
*1426 _1360_
*1427 _1361_
*1428 _1362_
*1429 _1363_
*1430 _1364_
*1431 _1365_
*1432 _1366_
*1433 _1367_
*1434 _1368_
*1435 _1369_
*1436 _1370_
*1437 _1371_
*1438 _1372_
*1439 _1373_
*1440 _1374_
*1441 _1375_
*1442 _1376_
*1443 _1377_
*1444 _1378_
*1445 _1379_
*1446 _1380_
*1447 _1381_
*1448 _1382_
*1449 _1383_
*1450 _1384_
*1451 _1385_
*1452 _1386_
*1453 _1387_
*1454 _1388_
*1455 _1389_
*1456 _1390_
*1457 _1391_
*1458 _1392_
*1459 _1393_
*1460 _1394_
*1461 _1395_
*1462 _1396_
*1463 _1397_
*1464 _1398_
*1465 _1399_
*1466 _1400_
*1467 _1401_
*1468 _1402_
*1469 _1403_
*1470 _1404_
*1471 _1405_
*1472 _1406_
*1473 _1407_
*1474 _1408_
*1475 _1409_
*1476 _1410_
*1477 _1411_
*1478 _1412_
*1479 _1413_
*1480 _1414_
*1481 _1415_
*1482 _1416_
*1483 _1417_
*1484 _1418_
*1485 _1419_
*1486 _1420_
*1487 _1421_
*1488 _1422_
*1489 _1423_
*1490 _1424_
*1491 _1425_
*1492 _1426_
*1493 _1427_
*1494 _1428_
*1495 _1429_
*1496 _1430_
*1497 _1431_
*1498 _1432_
*1499 _1433_
*1500 _1434_
*1501 _1435_
*1502 _1436_
*1503 _1437_
*1504 _1438_
*1505 _1439_
*1506 _1440_
*1507 _1441_
*1508 _1442_
*1509 _1443_
*1510 _1444_
*1511 _1445_
*1512 _1446_
*1513 _1447_
*1514 _1448_
*1515 _1449_
*1516 _1450_
*1517 _1451_
*1518 _1452_
*1519 _1453_
*1520 _1454_
*1521 _1455_
*1522 _1456_
*1523 _1457_
*1524 _1458_
*1525 _1459_
*1526 _1460_
*1527 _1461_
*1528 _1462_
*1529 _1463_
*1530 _1464_
*1531 _1465_
*1532 _1466_
*1533 _1467_
*1534 _1468_
*1535 _1469_
*1536 _1470_
*1537 _1471_
*1538 _1472_
*1539 _1473_
*1540 _1474_
*1541 _1475_
*1542 _1476_
*1543 _1477_
*1544 _1478_
*1545 _1479_
*1546 _1480_
*1547 _1481_
*1548 _1482_
*1549 _1483_
*1550 _1484_
*1551 _1485_
*1552 _1486_
*1553 _1487_
*1554 _1488_
*1555 _1489_
*1556 _1490_
*1557 _1491_
*1558 _1492_
*1559 _1493_
*1560 _1494_
*1561 _1495_
*1562 _1496_
*1563 _1497_
*1564 _1498_
*1565 _1499_
*1566 _1500_
*1567 _1501_
*1568 _1502_
*1569 _1503_
*1570 _1504_
*1571 _1505_
*1572 _1506_
*1573 _1507_
*1574 _1508_
*1575 _1509_
*1576 _1510_
*1577 _1511_
*1578 _1512_
*1579 _1513_
*1580 _1514_
*1581 _1515_
*1582 _1516_
*1583 _1517_
*1584 _1518_
*1585 _1519_
*1586 _1520_
*1587 _1521_
*1588 _1522_
*1589 _1523_
*1590 _1524_
*1591 _1525_
*1592 _1526_
*1593 _1527_
*1594 _1528_
*1595 _1529_
*1596 _1530_
*1597 _1531_
*1598 _1532_
*1599 _1533_
*1600 _1534_
*1601 _1535_
*1602 _1536_
*1603 _1537_
*1604 _1538_
*1605 _1539_
*1606 _1540_
*1607 _1541_
*1608 _1542_
*1609 _1543_
*1610 _1544_
*1611 _1545_
*1612 _1546_
*1613 _1547_
*1614 _1548_
*1615 _1549_
*1616 _1550_
*1617 _1551_
*1618 _1552_
*1619 _1553_
*1620 _1554_
*1621 _1555_
*1622 _1556_
*1623 _1557_
*1624 _1558_
*1625 _1559_
*1626 _1560_
*1627 _1561_
*1628 _1562_
*1629 _1563_
*1630 _1564_
*1631 _1565_
*1632 _1566_
*1633 _1567_
*1634 _1568_
*1635 _1569_
*1636 _1570_
*1637 _1571_
*1638 _1572_
*1639 _1573_
*1640 _1574_
*1641 _1575_
*1642 _1576_
*1643 _1577_
*1644 _1578_
*1645 _1579_
*1646 _1580_
*1647 _1581_
*1648 _1582_
*1649 _1583_
*1650 _1584_
*1651 _1585_
*1652 _1586_
*1653 _1587_
*1654 _1588_
*1655 _1589_
*1656 _1590_
*1657 _1591_
*1658 _1592_
*1659 _1593_
*1660 _1594_
*1661 _1595_
*1662 _1596_
*1663 _1597_
*1664 _1598_
*1665 _1599_
*1666 _1600_
*1667 _1601_
*1668 _1602_
*1669 _1603_
*1670 _1604_
*1671 _1605_
*1672 _1606_
*1673 _1607_
*1674 _1608_
*1675 _1609_
*1676 _1610_
*1677 _1611_
*1678 _1612_
*1679 _1613_
*1680 _1614_
*1681 _1615_
*1682 _1616_
*1683 _1617_
*1684 _1618_
*1685 _1619_
*1686 _1620_
*1687 _1621_
*1688 _1622_
*1689 _1623_
*1690 _1624_
*1691 _1625_
*1692 _1626_
*1693 _1627_
*1694 _1628_
*1695 _1629_
*1696 _1630_
*1697 _1631_
*1698 _1632_
*1699 _1633_
*1700 _1634_
*1701 _1635_
*1702 _1636_
*1703 _1637_
*1704 _1638_
*1705 _1639_
*1706 _1640_
*1707 _1641_
*1708 _1642_
*1709 _1643_
*1710 _1644_
*1711 _1645_
*1712 _1646_
*1713 _1647_
*1714 _1648_
*1715 _1649_
*1716 _1650_
*1717 _1651_
*1718 _1652_
*1719 _1653_
*1720 _1654_
*1721 _1655_
*1722 _1656_
*1723 _1657_
*1724 _1658_
*1725 _1659_
*1726 _1660_
*1727 _1661_
*1728 _1662_
*1729 _1663_
*1730 _1664_
*1731 _1665_
*1732 _1666_
*1733 _1667_
*1734 _1668_
*1735 _1669_
*1736 _1670_
*1737 _1671_
*1738 _1672_
*1739 _1673_
*1740 _1674_
*1741 _1675_
*1742 _1676_
*1743 _1677_
*1744 _1678_
*1745 _1679_
*1746 _1680_
*1747 _1681_
*1748 _1682_
*1749 _1683_
*1750 _1684_
*1751 _1685_
*1752 _1686_
*1753 _1687_
*1754 _1688_
*1755 _1689_
*1756 _1690_
*1757 _1691_
*1758 _1692_
*1759 _1693_
*1760 _1694_
*1761 _1695_
*1762 _1696_
*1763 _1697_
*1764 _1698_
*1765 _1699_
*1766 _1700_
*1767 _1701_
*1768 _1702_
*1769 _1703_
*1770 _1704_
*1771 _1705_
*1772 _1706_
*1773 _1707_
*1774 _1708_
*1775 _1709_
*1776 _1710_
*1777 _1711_
*1778 _1712_
*1779 _1713_
*1780 _1714_
*1781 _1715_
*1782 _1716_
*1783 _1717_
*1784 _1718_
*1785 _1719_
*1786 _1720_
*1787 _1721_
*1788 _1722_
*1789 _1723_
*1790 _1724_
*1791 _1725_
*1792 _1726_
*1793 _1727_
*1794 _1728_
*1795 _1729_
*1796 _1730_
*1797 _1731_
*1798 _1732_
*1799 _1733_
*1800 _1734_
*1801 _1735_
*1802 _1736_
*1803 _1737_
*1804 _1738_
*1805 _1739_
*1806 _1740_
*1807 _1741_
*1808 _1742_
*1809 _1743_
*1810 _1744_
*1811 _1745_
*1812 _1746_
*1813 _1747_
*1814 _1748_
*1815 _1749_
*1816 _1750_
*1817 _1751_
*1818 _1752_
*1819 _1753_
*1820 _1754_
*1821 _1755_
*1822 _1756_
*1823 _1757_
*1824 _1758_
*1825 _1759_
*1826 _1760_
*1827 _1761_
*1828 _1762_
*1829 _1763_
*1830 _1764_
*1831 _1765_
*1832 _1766_
*1833 _1767_
*1834 _1768_
*1835 _1769_
*1836 _1770_
*1837 _1771_
*1838 _1772_
*1839 _1773_
*1840 _1774_
*1841 _1775_
*1842 _1776_
*1843 _1777_
*1844 _1778_
*1845 _1779_
*1846 _1780_
*1847 _1781_
*1848 _1782_
*1849 _1783_
*1850 _1784_
*1851 _1785_
*1852 _1786_
*1853 _1787_
*1854 _1788_
*1855 _1789_
*1856 _1790_
*1857 _1791_
*1858 _1792_
*1859 _1793_
*1860 _1794_
*1861 _1795_
*1862 _1796_
*1863 _1797_
*1864 _1798_
*1865 _1799_
*1866 _1800_
*1867 _1801_
*1868 _1802_
*1869 _1803_
*1870 _1804_
*1871 _1805_
*1872 _1806_
*1873 _1807_
*1874 _1808_
*1875 _1809_
*1876 _1810_
*1877 _1811_
*1878 _1812_
*1879 _1813_
*1880 _1814_
*1881 _1815_
*1882 _1816_
*1883 _1817_
*1884 _1818_
*1885 _1819_
*1886 _1820_
*1887 _1821_
*1888 _1822_
*1889 _1823_
*1890 _1824_
*1891 _1825_
*1892 _1826_
*1893 _1827_
*1894 _1828_
*1895 _1829_
*1896 _1830_
*1897 _1831_
*1898 _1832_
*1899 _1833_
*1900 _1834_
*1901 _1835_
*1902 _1836_
*1903 _1837_
*1904 _1838_
*1905 _1839_
*1906 _1840_
*1907 _1841_
*1908 _1842_
*1909 _1843_
*1910 _1844_
*1911 _1845_
*1912 _1846_
*1913 _1847_
*1914 _1848_
*1915 _1849_
*1916 _1850_
*1917 _1851_
*1918 _1852_
*1919 _1853_
*1920 _1854_
*1921 _1855_
*1922 _1856_
*1923 _1857_
*1924 _1858_
*1925 _1859_
*1926 _1860_
*1927 _1861_
*1928 _1862_
*1929 _1863_
*1930 _1864_
*1931 _1865_
*1932 _1866_
*1933 _1867_
*1934 _1868_
*1935 _1869_
*1936 _1870_
*1937 _1871_
*1938 _1872_
*1939 _1873_
*1940 _1874_
*1941 _1875_
*1942 _1876_
*1943 _1877_
*1944 _1878_
*1945 _1879_
*1946 _1880_
*1947 _1881_
*1948 _1882_
*1949 _1883_
*1950 _1884_
*1951 _1885_
*1952 _1886_
*1953 _1887_
*1954 _1888_
*1955 _1889_
*1956 _1890_
*1957 _1891_
*1958 _1892_
*1959 _1893_
*1960 _1894_
*1961 _1895_
*1962 _1896_
*1963 _1897_
*1964 _1898_
*1965 _1899_
*1966 _1900_
*1967 _1901_
*1968 _1902_
*1969 _1903_
*1970 _1904_
*1971 _1905_
*1972 _1906_
*1973 _1907_
*1974 _1908_
*1975 _1909_
*1976 _1910_
*1977 _1911_
*1978 _1912_
*1979 _1913_
*1980 _1914_
*1981 _1915_
*1982 _1916_
*1983 _1917_
*1984 _1918_
*1985 _1919_
*1986 _1920_
*1987 _1921_
*1988 _1922_
*1989 _1923_
*1990 _1924_
*1991 _1925_
*1992 _1926_
*1993 _1927_
*1994 _1928_
*1995 _1929_
*1996 _1930_
*1997 _1931_
*1998 _1932_
*1999 _1933_
*2000 _1934_
*2001 _1935_
*2002 _1936_
*2003 _1937_
*2004 _1938_
*2005 _1939_
*2006 _1940_
*2007 _1941_
*2008 _1942_
*2009 _1943_
*2010 _1944_
*2011 _1945_
*2012 _1946_
*2013 _1947_
*2014 _1948_
*2015 _1949_
*2016 _1950_
*2017 _1951_
*2018 _1952_
*2019 _1953_
*2020 _1954_
*2021 _1955_
*2022 _1956_
*2023 _1957_
*2024 _1958_
*2025 _1959_
*2026 _1960_
*2027 _1961_
*2028 _1962_
*2029 _1963_
*2030 _1964_
*2031 _1965_
*2032 _1966_
*2033 _1967_
*2034 _1968_
*2035 _1969_
*2036 _1970_
*2037 _1971_
*2038 _1972_
*2039 _1973_
*2040 _1974_
*2041 _1975_
*2042 _1976_
*2043 _1977_
*2044 _1978_
*2045 _1979_
*2046 _1980_
*2047 _1981_
*2048 _1982_
*2049 _1983_
*2050 _1984_
*2051 _1985_
*2052 _1986_
*2053 _1987_
*2054 _1988_
*2055 _1989_
*2056 _1990_
*2057 _1991_
*2058 _1992_
*2059 _1993_
*2060 _1994_
*2061 _1995_
*2062 _1996_
*2063 _1997_
*2064 _1998_
*2065 _1999_
*2066 _2000_
*2067 _2001_
*2068 _2002_
*2069 _2003_
*2070 _2004_
*2071 _2005_
*2072 _2006_
*2073 _2007_
*2074 _2008_
*2075 _2009_
*2076 _2010_
*2077 _2011_
*2078 _2012_
*2079 _2013_
*2080 _2014_
*2081 _2015_
*2082 _2016_
*2083 _2017_
*2084 _2018_
*2085 _2019_
*2086 _2020_
*2087 _2021_
*2088 _2022_
*2089 _2023_
*2090 _2024_
*2091 _2025_
*2092 _2026_
*2093 _2027_
*2094 _2028_
*2095 _2029_
*2096 _2030_
*2097 _2031_
*2098 _2032_
*2099 _2033_
*2100 _2034_
*2101 _2035_
*2102 _2036_
*2103 _2037_
*2104 _2038_
*2105 _2039_
*2106 _2040_
*2107 _2041_
*2108 _2042_
*2109 _2043_
*2110 _2044_
*2111 _2045_
*2112 _2046_
*2113 _2047_
*2114 _2048_
*2115 _2049_
*2116 _2050_
*2117 _2051_
*2118 _2052_
*2119 _2053_
*2120 _2054_
*2121 _2055_
*2122 _2056_
*2123 _2057_
*2124 _2058_
*2125 _2059_
*2126 _2060_
*2127 _2061_
*2128 _2062_
*2129 _2063_
*2130 _2064_
*2131 _2065_
*2132 _2066_
*2133 _2067_
*2134 _2068_
*2135 _2069_
*2136 _2070_
*2137 _2071_
*2138 _2072_
*2139 _2073_
*2140 _2074_
*2141 _2075_
*2142 _2076_
*2143 _2077_
*2144 _2078_
*2145 _2079_
*2146 _2080_
*2147 _2081_
*2148 _2082_
*2149 _2083_
*2150 _2084_
*2151 _2085_
*2152 _2086_
*2153 _2087_
*2154 _2088_
*2155 _2089_
*2156 _2090_
*2157 _2091_
*2158 _2092_
*2159 _2093_
*2160 _2094_
*2161 _2095_
*2162 _2096_
*2163 _2097_
*2164 _2098_
*2165 _2099_
*2166 _2100_
*2167 _2101_
*2168 _2102_
*2169 _2103_
*2170 _2104_
*2171 _2105_
*2172 _2106_
*2173 _2107_
*2174 _2108_
*2175 _2109_
*2176 _2110_
*2177 _2111_
*2178 _2112_
*2179 _2113_
*2180 _2114_
*2181 _2115_
*2182 _2116_
*2183 _2117_
*2184 _2118_
*2185 _2119_
*2186 _2120_
*2187 _2121_
*2188 _2122_
*2189 _2123_
*2190 _2124_
*2191 _2125_
*2192 _2126_
*2193 _2127_
*2194 _2128_
*2195 _2129_
*2196 _2130_
*2197 _2131_
*2198 _2132_
*2199 _2133_
*2200 _2134_
*2201 _2135_
*2202 _2136_
*2203 _2137_
*2204 _2138_
*2205 _2139_
*2206 _2140_
*2207 _2141_
*2208 _2142_
*2209 _2143_
*2210 _2144_
*2211 _2145_
*2212 _2146_
*2213 _2147_
*2214 _2148_
*2215 _2149_
*2216 _2150_
*2217 _2151_
*2218 _2152_
*2219 _2153_
*2220 _2154_
*2221 _2155_
*2222 _2156_
*2223 _2157_
*2224 _2158_
*2225 _2159_
*2226 _2160_
*2227 _2161_
*2228 _2162_
*2229 _2163_
*2230 _2164_
*2231 _2165_
*2232 _2166_
*2233 _2167_
*2234 _2168_
*2235 _2169_
*2236 _2170_
*2237 _2171_
*2238 _2172_
*2239 _2173_
*2240 _2174_
*2241 _2175_
*2242 _2176_
*2243 _2177_
*2244 _2178_
*2245 _2179_
*2246 _2180_
*2247 _2181_
*2248 _2182_
*2249 _2183_
*2250 _2184_
*2251 _2185_
*2252 _2186_
*2253 _2187_
*2254 _2188_
*2255 _2189_
*2256 _2190_
*2257 _2191_
*2258 _2192_
*2259 _2193_
*2260 _2194_
*2261 _2195_
*2262 _2196_
*2263 _2197_
*2264 _2198_
*2265 _2199_
*2266 _2200_
*2267 _2201_
*2268 _2202_
*2269 _2203_
*2270 _2204_
*2271 _2205_
*2272 _2206_
*2273 _2207_
*2274 _2208_
*2275 _2209_
*2276 _2210_
*2277 _2211_
*2278 _2212_
*2279 _2213_
*2280 _2214_
*2281 _2215_
*2282 _2216_
*2283 _2217_
*2284 _2218_
*2285 _2219_
*2286 _2220_
*2287 _2221_
*2288 _2222_
*2289 _2223_
*2290 _2224_
*2291 _2225_
*2292 _2226_
*2293 _2227_
*2294 _2228_
*2295 _2229_
*2296 _2230_
*2297 _2231_
*2298 _2232_
*2299 _2233_
*2300 _2234_
*2301 _2235_
*2302 _2236_
*2303 _2237_
*2304 _2238_
*2305 _2239_
*2306 _2240_
*2307 _2241_
*2308 _2242_
*2309 _2243_
*2310 _2244_
*2311 _2245_
*2312 _2246_
*2313 _2247_
*2314 _2248_
*2315 _2249_
*2316 _2250_
*2317 _2251_
*2318 _2252_
*2319 _2253_
*2320 _2254_
*2321 _2255_
*2322 _2256_
*2323 _2257_
*2324 _2258_
*2325 _2259_
*2326 _2260_
*2327 _2261_
*2328 _2262_
*2329 _2263_
*2330 _2264_
*2331 _2265_
*2332 _2266_
*2333 _2267_
*2334 _2268_
*2335 _2269_
*2336 _2270_
*2337 _2271_
*2338 _2272_
*2339 _2273_
*2340 _2274_
*2341 _2275_
*2342 _2276_
*2343 _2277_
*2344 _2278_
*2345 _2279_
*2346 _2280_
*2347 _2281_
*2348 _2282_